#======================================================================

# CRYSTAL DATA

#----------------------------------------------------------------------

data_VESTA_phase_1


_chemical_name_common                  ''
_cell_length_a                         8.13859
_cell_length_b                         16.11515
_cell_length_c                         3.56470
_cell_angle_alpha                      90
_cell_angle_beta                       101.21989
_cell_angle_gamma                      90
_space_group_name_H-M_alt              'C m'
_space_group_IT_number                 8
_cell_volume   458.59151460
_cell_formula_units_Z   2



loop_
_space_group_symop_operation_xyz
   'x, y, z'
   'x, -y, z'
   'x+1/2, y+1/2, z'
   'x+1/2, -y+1/2, z'

loop_
   _atom_site_label
   _atom_site_occupancy
   _atom_site_symmetry_multiplicity
   _atom_site_Wyckoff_symbol
   _atom_site_fract_x
   _atom_site_fract_y
   _atom_site_fract_z
   _atom_site_adp_type
   _atom_site_B_iso_or_equiv
   _atom_site_type_symbol
   Ca0        1.0   4  b  0.060844      0.387337      0.277472     Biso  1.000000 Ca
   Ca1        1.0   4  b   0.439027      0.681943      0.948872     Biso  1.000000 Ca
   Y2         1.0   2 a 0.201109      0.000000      0.605439     Biso  1.000000 Y
   B3         1.0   4 b  0.252587      0.194216      0.523436     Biso  1.000000 B
   B4         1.0   2 a  0.328524      0.500000      0.904710     Biso  1.000000 B
   O5         1.0   4 b  0.115897      0.142136      0.526044     Biso  1.000000 O
   O6         1.0   4 b  0.234295      0.268970      0.329000     Biso  1.000000 O
   O7         1.0  4 b  0.241796      0.425472      0.856879     Biso  1.000000 O
   O8         1.0    4 b  0.410220      0.171760      0.720748     Biso  1.000000 O
   O9         1.0   2 a  0.002569      0.000000      0.999620     Biso  1.000000 O
   O10        1.0   2 a  0.371963      0.000000      0.184429     Biso  1.000000 O
