#======================================================================

# CRYSTAL DATA

#----------------------------------------------------------------------

data_VESTA_phase_1


_chemical_name_common                  ''
_cell_length_a                         12.98499
_cell_length_b                         6.49256
_cell_length_c                         10.70372
_cell_angle_alpha                      90
_cell_angle_beta                       90
_cell_angle_gamma                      90
_space_group_name_H-M_alt              'P n a 21'
_space_group_IT_number                 33

_chemical_formula_sum   'K8 Ti8 P8 O40'

_cell_volume   902.38512460

_cell_formula_units_Z

loop_
_space_group_symop_operation_xyz
   'x, y, z'
   '-x, -y, z+1/2'
   'x+1/2, -y+1/2, z'
   '-x+1/2, y+1/2, z+1/2'

loop_
   _atom_site_label
   _atom_site_occupancy
   _atom_site_fract_x
   _atom_site_fract_y
   _atom_site_fract_z
   _atom_site_adp_type
   _atom_site_B_iso_or_equiv
   _atom_site_type_symbol
   K0         1.0     0.106058      0.299119      0.565632     Biso  1.000000 K
   K1         1.0     0.124380      0.719952      0.310580     Biso  1.000000 K
   Ti2        1.0     0.128774      0.000481      0.004223     Biso  1.000000 Ti
   Ti3        1.0     0.245649      0.735657      0.754583     Biso  1.000000 Ti
   P4         1.0     0.001694      0.160460      0.261916     Biso  1.000000 P
   P5         1.0     0.180442      0.496609      0.012691     Biso  1.000000 P
   O6         1.0     0.011095      0.967076      0.884695     Biso  1.000000 O
   O7         1.0     0.014538      0.010699      0.151792     Biso  1.000000 O
   O8         1.0     0.094291      0.698855      0.740201     Biso  1.000000 O
   O9         1.0     0.098399      0.298834      0.281254     Biso  1.000000 O
   O10        1.0     0.112124      0.686303      0.041149     Biso  1.000000 O
   O11        1.0     0.112558      0.305899      0.986655     Biso  1.000000 O
   O12        1.0     0.223555      0.036840      0.141970     Biso  1.000000 O
   O13        1.0     0.223994      0.952346      0.889314     Biso  1.000000 O
   O14        1.0     0.247998      0.036774      0.398926     Biso  1.000000 O
   O15        1.0     0.248057      0.960488      0.628158     Biso  1.000000 O
